packages/bdgd2opendss/bdgd2opendss-1.0.1.tar.gz/bdgd2opendss-1.0.1/tests/dss_models_output/sub__/1_ALPE_1/CargasMT_DU05_202312598_1_ALPE_1_------1-----.dss
New "Load.MT_79959_M1" bus1="799591.1.2.3.4" phases=3 conn=Delta model=2 kv=23.100000000 kw = 20.7492085 pf=0.92 status=variable vmaxpu=1.5 vminpu=0.6 daily="MT1_DU"  
New "Load.MT_79959_M2" bus1="799591.1.2.3.4" phases=3 conn=Delta model=3 kv=23.100000000 kw = 20.7492085 pf=0.92 status=variable vmaxpu=1.5 vminpu=0.6 daily="MT1_DU" 
New "Load.MT_12185_M1" bus1="121851.1.2.3.4" phases=3 conn=Delta model=2 kv=23.100000000 kw = 8.6398075 pf=0.92 status=variable vmaxpu=1.5 vminpu=0.6 daily="MT6_DU"  
New "Load.MT_12185_M2" bus1="121851.1.2.3.4" phases=3 conn=Delta model=3 kv=23.100000000 kw = 8.6398075 pf=0.92 status=variable vmaxpu=1.5 vminpu=0.6 daily="MT6_DU" 
New "Load.MT_78362_M1" bus1="783621.1.2.3.4" phases=3 conn=Delta model=2 kv=23.100000000 kw = 0.0 pf=0.92 status=variable vmaxpu=1.5 vminpu=0.6 daily="MT3_DU"  
New "Load.MT_78362_M2" bus1="783621.1.2.3.4" phases=3 conn=Delta model=3 kv=23.100000000 kw = 0.0 pf=0.92 status=variable vmaxpu=1.5 vminpu=0.6 daily="MT3_DU" 
New "Load.MT_77104_M1" bus1="771041.1.2.3.4" phases=3 conn=Delta model=2 kv=23.100000000 kw = 24.261988 pf=0.92 status=variable vmaxpu=1.5 vminpu=0.6 daily="MT1_DU"  
New "Load.MT_77104_M2" bus1="771041.1.2.3.4" phases=3 conn=Delta model=3 kv=23.100000000 kw = 24.261988 pf=0.92 status=variable vmaxpu=1.5 vminpu=0.6 daily="MT1_DU" 
New "Load.MT_74913_M1" bus1="749131.1.2.3.4" phases=3 conn=Delta model=2 kv=23.100000000 kw = 7.8714605 pf=0.92 status=variable vmaxpu=1.5 vminpu=0.6 daily="MT4_DU"  
New "Load.MT_74913_M2" bus1="749131.1.2.3.4" phases=3 conn=Delta model=3 kv=23.100000000 kw = 7.8714605 pf=0.92 status=variable vmaxpu=1.5 vminpu=0.6 daily="MT4_DU" 
New "Load.MT_12183_M1" bus1="121831.1.2.3.4" phases=3 conn=Delta model=2 kv=23.100000000 kw = 3.3518675 pf=0.92 status=variable vmaxpu=1.5 vminpu=0.6 daily="MT1_DU"  
New "Load.MT_12183_M2" bus1="121831.1.2.3.4" phases=3 conn=Delta model=3 kv=23.100000000 kw = 3.3518675 pf=0.92 status=variable vmaxpu=1.5 vminpu=0.6 daily="MT1_DU" 
New "Load.MT_78094_M1" bus1="780941.1.2.3.4" phases=3 conn=Delta model=2 kv=23.100000000 kw = 0.0 pf=0.92 status=variable vmaxpu=1.5 vminpu=0.6 daily="MT3_DU"  
New "Load.MT_78094_M2" bus1="780941.1.2.3.4" phases=3 conn=Delta model=3 kv=23.100000000 kw = 0.0 pf=0.92 status=variable vmaxpu=1.5 vminpu=0.6 daily="MT3_DU" 
